  10683 'GENSAL' 1  6.000000  0.458800  0.518000  3.332900  0.000000  1.000000  0.648400
  0.384200  0.283100  0.216900  0.220900  0.508400  /
  10683 'SCRX' 1  0.1  10.01  100  0.01  -4  5  0  0  /
  10683 'HYGOV' 1  0.05  0.654  7.377  0.05  0.4  0.167  1  0  0.6994  1.2  0  0.0731  /
  10683 'IEEEST' 1  1  0  1.013  0.013  0  0  1.013  0.113  0  0.02  0  0  1.65  1.65  3  0.1  -0.1  0  0  /
  10684 'GENSAL' 1  6.000000  0.299000  0.170200  3.304300  0.000000  1.000000  0.648400
  0.414200  0.271500  0.147600  0.097800  0.379900  /
  10684 'SCRX' 1  0.1  10.01  100  0  -4  5  0  0  /
  10684 'HYGOV' 1  0.07  0.2286  2.2881  0.05  0.33  0.07  1  0  1.5085  1.2  1  0.0721  /
  10684 'IEEEST' 1  1  0  1.013  0.013  0  0  1.013  0.113  0  0.02  0  0  1.65  1.65  3  0.1  -0.1  0  0  /
  10685 'GENSAL' 1  6.000000  0.486000  0.495500  3.986700  0.000000  1.000000  0.648400
  0.477600  0.328600  0.077500  0.188400  0.634800  /
  10685 'SCRX' 1  0.1  10.01  100  0  -4  5  0  0  /
  10685 'HYGOV' 1  0.05  0.8277  5.5363  0.041667  0.5  0.07  1  0  1.1202  1.2  0  0.0758  /
  10685 'IEEEST' 1  1  0  1.013  0.013  0  0  1.013  0.113  0  0.02  0  0  1.65  1.65  3  0.1  -0.1  0  0  /
  10686 'GENSAL' 1  6.000000  0.504200  0.319900  3.438900  0.000000  1.000000  0.648400
  0.342700  0.334400  0.181200  0.295600  0.823800  /
  10686 'ESDC1A' 1  0  40  0.01  0  0  10  -10  0  0.9  0.0566  1  0  2.3723  0.1445  3.1631  0.4336  /
  10686 'HYGOV' 1  0.05  0.7743  5.1042  0.4  0.4  0.167  1  0  1.7112  1.2  0.2  0.0745  /
  10686 'IEEEST' 1  1  0  1.013  0.013  0  0  1.013  0.113  0  0.02  0  0  1.65  1.65  3  0.1  -0.1  0  0  /
  10687 'GENSAL' 1  6.000000  0.484600  0.141200  3.139600  0.000000  1.000000  0.648400
  0.440100  0.404600  0.179200  0.270700  0.608700  /
  10687 'ESDC1A' 1  0  40  0.041667  0  0  10  -10  0  0.9  0.0154  1  0  2.4713  0.1438  3.2951  0.4314  /
  10687 'HYGOV' 1  0.05  0.3125  9.8142  0.4  0.33  0.167  1  0  0.8449  1.2  0  0.0734  /
  10687 'IEEEST' 1  1  0  1.013  0.013  0  0  1.013  0.113  0  0.02  0  0  1.65  1.65  3  0.1  -0.1  0  0  /
  10688 'GENSAL' 1  6.000000  0.053600  0.495400  3.389600  0.000000  1.000000  0.648400
  0.471300  0.279100  0.202800  0.178900  0.572900  /
  10688 'IEEET1' 1  0  25  0.2  1  -1  0  0.646  0.103  1  0  2.7207  0.0855  3.6276  0.3919  /
  10688 'HYGOV' 1  0.04  0.952  7.4045  0.05  0.4  0.167  1  0  1.0631  1.25  0.2  0.0766  /
  10688 'IEEEST' 1  1  0  1.013  0.013  0  0  1.013  0.113  0  0.02  0  0  1.65  1.65  3  0.1  -0.1  0  0  /
  10689 'GENSAL' 1  6.000000  0.324700  0.161500  2.529600  0.000000  1.177700  0.764300
  0.350700  0.237600  0.235500  0.216200  0.714900  /
  10689 'ESDC1A' 1  0.06  40  0.041667  0  0  10  -10  0  0.9  0.0676  1  0  2.4622  0.15  3.2829  0.45  /
  10689 'HYGOV' 1  0.05  0.5192  8.5401  0.4  0.33  0.167  1  0  1.7082  1.2  0.2  0.079  /
  10689 'IEEEST' 1  1  0  1.013  0.013  0  0  1.013  0.113  0  0.02  0  0  1.65  1.65  3  0.1  -0.1  0  0  /
  10694 'GENSAL' 1  6.000000  0.197600  0.288100  3.498700  0.000000  0.798100  0.516700
  0.328900  0.227500  0.210400  0.271400  0.874300  /
  10694 'SCRX' 1  0.1  10.01  100  0  -4  5  0  0  /
  10694 'HYGOV' 1  0.07  0.9962  6.2038  0.041667  0.5  0.167  1  0  0.4295  1.25  1  0.0715  /
  10694 'IEEEST' 1  1  0  1.013  0.013  0  0  1.013  0.113  0  0.02  0  0  1.65  1.65  3  0.1  -0.1  0  0  /
  10695 'GENSAL' 1  6.000000  0.186700  0.235800  3.987900  0.000000  1.177500  0.764200
  0.427500  0.395900  0.092800  0.202600  0.461200  /
  10695 'IEEET1' 1  0.06  25  0.2  1.211  -1.211  0  0.5  0.103  1  0  2.6819  0.0829  3.5758  0.3801  /
  10695 'HYGOV' 1  0.04  0.8082  2.113  0.041667  0.4  0.167  1  0  1.8891  1.2  0  0.0792  /
  10695 'IEEEST' 1  1  0  1.013  0.013  0  0  1.013  0.113  0  0.02  0  0  1.65  1.65  3  0.1  -0.1  0  0  /
  10710 'GENSAL' 1  6.000000  0.537600  0.408200  3.816200  0.000000  1.000000  0.648400
  0.311900  0.280700  0.120900  0.224500  0.656000  /
  10710 'ESDC1A' 1  0.06  100  0.041667  0  0  1  -1  0  0.9  0.0196  1  0  2.4838  0.1219  3.3117  0.3656  /
  10710 'HYGOV' 1  0.05  0.7153  2.5038  0.05  0.4  0.167  1  0  0.8433  1.2  0.5  0.0785  /
  10710 'IEEEST' 1  1  0  1.013  0.013  0  0  1.013  0.113  0  0.02  0  0  1.65  1.65  3  0.1  -0.1  0  0  /
  10711 'GENSAL' 1  6.000000  0.491900  0.448400  3.693500  0.000000  1.000000  0.648400
  0.210000  0.158700  0.128300  0.228300  0.479100  /
  10711 'ESDC1A' 1  0.06  100  0.041667  0  0  1  -1  0  0.9  0.0294  1  0  2.4246  0.1346  3.2328  0.4037  /
  10711 'HYGOV' 1  0.07  0.4309  7.967  0.4  0.5  0.167  1  0  0.9572  1.25  0  0.0791  /
  10711 'IEEEST' 1  1  0  1.013  0.013  0  0  1.013  0.113  0  0.02  0  0  1.65  1.65  3  0.1  -0.1  0  0  /
  10712 'GENSAL' 1  6.000000  0.235300  0.390200  3.280100  0.000000  1.000000  0.648400
  0.211400  0.150200  0.121400  0.219700  0.513800  /
  10712 'SCRX' 1  0.1  10.01  100  0  -4  5  0  0  /
  10712 'HYGOV' 1  0.05  0.6462  4.8738  0.05  0.4  0.167  1  0  1.5182  1.25  0.5  0.0714  /
  10712 'IEEEST' 1  1  0  1.013  0.013  0  0  1.013  0.113  0  0.02  0  0  1.65  1.65  3  0.1  -0.1  0  0  /
  10713 'GENSAL' 1  6.000000  0.594900  0.105500  3.135500  0.000000  1.000000  0.648400
  0.459500  0.270800  0.135100  0.252000  0.590300  /
  10713 'IEEET1' 1  0  25  0.2  1.211  -1.211  0  0.646  0.103  1  0  2.9814  0.0817  3.9752  0.3745  /
  10713 'HYGOV' 1  0.05  0.7434  7.5966  0.05  0.33  0.1  1  0  1.7233  1.2  0.2  0.0746  /
  10713 'IEEEST' 1  1  0  1.013  0.013  0  0  1.013  0.113  0  0.02  0  0  1.65  1.65  3  0.1  -0.1  0  0  /
  10714 'GENSAL' 1  6.000000  0.410200  0.194100  2.823800  0.000000  1.000000  0.648400
  0.328100  0.300300  0.243100  0.155100  0.640100  /
  10714 'ESDC1A' 1  0.06  40  0.01  0  0  1  -1  0  0.9  0.0486  1  0  2.2987  0.1386  3.0649  0.4159  /
  10714 'HYGOV' 1  0.05  0.3939  9.8333  0.05  0.4  0.1  1  0  0.7683  1.2  1  0.0766  /
  10714 'IEEEST' 1  1  0  1.013  0.013  0  0  1.013  0.113  0  0.02  0  0  1.65  1.65  3  0.1  -0.1  0  0  /
  10715 'GENSAL' 1  6.000000  0.337600  0.539100  2.641700  0.000000  1.000000  0.648400
  0.241600  0.153000  0.133100  0.181500  0.594400  /
  10715 'IEEET1' 1  0.06  25  0.2  1.211  -1.211  0  0.5  0.103  1  0  2.6006  0.0841  3.4675  0.3856  /
  10715 'HYGOV' 1  0.05  0.8647  8.0716  0.05  0.4  0.1  1  0  0.4148  1.2  1  0.0713  /
  10715 'IEEEST' 1  1  0  1.013  0.013  0  0  1.013  0.113  0  0.02  0  0  1.65  1.65  3  0.1  -0.1  0  0  /
  10722 'GENSAL' 1  6.000000  0.155300  0.288000  3.041400  0.000000  1.000000  0.648400
  0.265800  0.240800  0.173500  0.110900  0.528300  /
  10722 'IEEET1' 1  0  25  0.2  1  -1  0  0.646  0.103  1  0  2.813  0.0846  3.7506  0.3879  /
  10722 'HYGOV' 1  0.07  0.7713  8.7558  0.05  0.33  0.167  1  0  1.0346  1.25  0  0.0735  /
  10722 'IEEEST' 1  1  0  1.013  0.013  0  0  1.013  0.113  0  0.02  0  0  1.65  1.65  3  0.1  -0.1  0  0  /
  10723 'GENSAL' 1  6.000000  0.421800  0.580800  2.273300  0.000000  1.000000  0.648400
  0.304800  0.295300  0.237600  0.230400  0.599100  /
  10723 'IEEET1' 1  0  25  0.2  1  -1  0  0.646  0.103  1  0  2.8197  0.0823  3.7596  0.3774  /
  10723 'HYGOV' 1  0.05  0.7408  6.913  0.2  0.5  0.167  1  0  0.9551  1.2  0  0.0724  /
  10723 'IEEEST' 1  1  0  1.013  0.013  0  0  1.013  0.113  0  0.02  0  0  1.65  1.65  3  0.1  -0.1  0  0  /
  10724 'GENSAL' 1  6.000000  0.185000  0.378600  2.950900  0.000000  1.000000  0.648400
  0.274100  0.247800  0.078600  0.097900  0.471400  /
  10724 'SCRX' 1  0.1  10.01  100  0  -4  5  0  0  /
  10724 'HYGOV' 1  0.07  0.2606  4.0356  0.05  0.5  0.07  1  0  1.4622  1.2  1  0.0723  /
  10724 'IEEEST' 1  1  0  1.013  0.013  0  0  1.013  0.113  0  0.02  0  0  1.65  1.65  3  0.1  -0.1  0  0  /
  10725 'GENSAL' 1  6.000000  0.599000  0.064700  3.905800  0.000000  1.000000  0.648400
  0.353000  0.284400  0.158100  0.090200  0.269800  /
  10725 'SCRX' 1  0.1  10.01  100  0  -4  5  0  0  /
  10725 'HYGOV' 1  0.05  0.5103  5.9298  0.4  0.33  0.167  1  0  0.5869  1.25  0  0.0772  /
  10725 'IEEEST' 1  1  0  1.013  0.013  0  0  1.013  0.113  0  0.02  0  0  1.65  1.65  3  0.1  -0.1  0  0  /
  10726 'GENSAL' 1  6.000000  0.220600  0.436900  3.178200  0.000000  1.000000  0.648400
  0.421600  0.345000  0.230900  0.263300  0.787300  /
  10726 'ESDC1A' 1  0.06  40  0.041667  0  0  10  -10  0  0.9  0.0659  1  0  2.4753  0.1332  3.3004  0.3997  /
  10726 'HYGOV' 1  0.07  0.7035  3.4055  0.2  0.4  0.07  1  0  0.6732  1.2  0.5  0.0728  /
  10726 'IEEEST' 1  1  0  1.013  0.013  0  0  1.013  0.113  0  0.02  0  0  1.65  1.65  3  0.1  -0.1  0  0  /
  10727 'GENSAL' 1  6.000000  0.335900  0.544200  2.403700  0.000000  1.000000  0.648400
  0.352200  0.326200  0.200100  0.127400  0.333300  /
  10727 'SCRX' 1  0.1  10.01  100  0.01  -4  5  0  0  /
  10727 'HYGOV' 1  0.05  0.5707  7.3082  0.4  0.33  0.167  1  0  1.6585  1.2  0.5  0.0797  /
  10727 'IEEEST' 1  1  0  1.013  0.013  0  0  1.013  0.113  0  0.02  0  0  1.65  1.65  3  0.1  -0.1  0  0  /
  10728 'GENSAL' 1  6.000000  0.592600  0.101300  1.985800  0.000000  1.183100  0.767800
  0.334200  0.264600  0.084500  0.061900  0.250900  /
  10728 'ESDC1A' 1  0  40  0.041667  0  0  1  -1  0  0.9  0.0271  1  0  2.4482  0.1303  3.2643  0.3909  /
  10728 'HYGOV' 1  0.05  0.4567  8.0904  0.041667  0.33  0.1  1  0  0.9092  1.2  1  0.0707  /
  10728 'IEEEST' 1  1  0  1.013  0.013  0  0  1.013  0.113  0  0.02  0  0  1.65  1.65  3  0.1  -0.1  0  0  /
  10728 'GENSAL' 2  6.000000  0.194000  0.108100  2.060100  0.000000  1.219500  0.791600
  0.403400  0.310800  0.084500  0.221800  0.491900  /
  10728 'IEEET1' 2  0  25  0.2  1.211  -1.211  0  0.646  0.103  1  0  2.9201  0.0872  3.8934  0.3997  /
  10728 'HYGOV' 2  0.05  0.6388  3.4176  0.04  0.33  0.167  1  0  1.3021  1.2  0  0.0729  /
  10728 'IEEEST' 2  1  0  1.013  0.013  0  0  1.013  0.113  0  0.02  0  0  1.65  1.65  3  0.1  -0.1  0  0  /
  10729 'GENSAL' 1  6.000000  0.382400  0.155800  2.662400  0.000000  0.896600  0.580900
  0.405000  0.339300  0.221100  0.077200  0.272100  /
  10729 'SCRX' 1  0.1  10.01  100  0.01  -4  5  0  0  /
  10729 'HYGOV' 1  0.05  0.8946  4.6558  0.4  0.4  0.2  1  0  0.9894  1.2  0  0.0765  /
  10729 'IEEEST' 1  1  0  1.013  0.013  0  0  1.013  0.113  0  0.02  0  0  1.65  1.65  3  0.1  -0.1  0  0  /
  10729 'GENSAL' 2  6.000000  0.370600  0.109900  2.250000  0.000000  0.880300  0.570300
  0.362700  0.283400  0.107500  0.059100  0.250500  /
  10729 'IEEET1' 2  0.06  25  0.2  1  -1  0  0.646  0.103  1  0  2.9534  0.0897  3.9379  0.4113  /
  10729 'HYGOV' 2  0.07  0.7595  2.2454  0.4  0.4  0.2  1  0  0.3736  1.2  0  0.0786  /
  10729 'IEEEST' 2  1  0  1.013  0.013  0  0  1.013  0.113  0  0.02  0  0  1.65  1.65  3  0.1  -0.1  0  0  /
  10731 'GENSAL' 1  6.000000  0.341400  0.349000  1.988800  0.000000  1.254500  0.814400
  0.476900  0.327700  0.218100  0.235400  0.596900  /
  10731 'IEEET1' 1  0  40  0.2  1.211  -1.211  0  0.646  0.103  1  0  2.9472  0.089  3.9295  0.4078  /
  10731 'HYGOV' 1  0.07  0.4233  3.208  0.05  0.5  0.167  1  0  1.9255  1.25  0  0.0794  /
  10731 'IEEEST' 1  1  0  1.013  0.013  0  0  1.013  0.113  0  0.02  0  0  1.65  1.65  3  0.1  -0.1  0  0  /
  10731 'GENSAL' 2  6.000000  0.180500  0.310500  1.626500  0.000000  0.725100  0.469000
  0.247500  0.197000  0.112200  0.075800  0.501700  /
  10731 'SCRX' 2  0.1  10.01  100  0.01  -4  5  0  0  /
  10731 'HYGOV' 2  0.04  0.7467  8.7758  0.2  0.33  0.07  1  0  0.3784  1.2  0  0.0767  /
  10731 'IEEEST' 2  1  0  1.013  0.013  0  0  1.013  0.113  0  0.02  0  0  1.65  1.65  3  0.1  -0.1  0  0  /
  10731 'GENSAL' 3  6.000000  0.198900  0.196300  1.661200  0.000000  0.998000  0.647100
  0.370500  0.357000  0.081600  0.085300  0.516600  /
  10731 'IEEET1' 3  0.06  25  0.2  1.211  -1.211  0  0.646  0.103  1  0  2.6094  0.085  3.4792  0.3896  /
  10731 'HYGOV' 3  0.05  0.7301  7.693  0.05  0.33  0.167  1  0  1.1963  1.25  0.2  0.0725  /
  10731 'IEEEST' 3  1  0  1.013  0.013  0  0  1.013  0.113  0  0.02  0  0  1.65  1.65  3  0.1  -0.1  0  0  /
  10731 'GENSAL' 4  6.000000  0.301700  0.085300  3.306400  0.000000  0.813300  0.526600
  0.294700  0.190200  0.165800  0.053300  0.290900  /
  10731 'ESDC1A' 4  0  40  0.041667  0  0  10  -10  0  0.9  0.0694  1  0  2.3845  0.1289  3.1793  0.3867  /
  10731 'HYGOV' 4  0.07  0.9338  3.0619  0.05  0.4  0.2  1  0  1.9743  1.2  0.2  0.0729  /
  10731 'IEEEST' 4  1  0  1.013  0.013  0  0  1.013  0.113  0  0.02  0  0  1.65  1.65  3  0.1  -0.1  0  0  /
  10731 'GENSAL' 5  6.000000  0.369600  0.053100  2.601800  0.000000  1.165600  0.756400
  0.300800  0.253200  0.153600  0.058300  0.156100  /
  10731 'IEEET1' 5  0  25  0.2  1  -1  0  0.5  0.103  1  0  2.9207  0.0832  3.8942  0.3811  /
  10731 'HYGOV' 5  0.05  0.7372  4.6539  0.4  0.33  0.167  1  0  1.3493  1.2  0.2  0.0799  /
  10731 'IEEEST' 5  1  0  1.013  0.013  0  0  1.013  0.113  0  0.02  0  0  1.65  1.65  3  0.1  -0.1  0  0  /
  10737 'GENROU' 1  5.637300  0.048300  0.928300  0.058600  2.873028  0.000000  2.077100
  1.947500  0.284100  0.585000  0.199600  0.154700  0.133900  0.744100  /
  10737 'EXPIC1' 1  0  4  1  1  -0.87  0  0  0  1  -0.87  0  1  0  8.0956  0  0  0  1  0  1.2  0  6.5165  0  0.08  /
  10737 'GGOV1' 1  1  1  0.04  1  0.05  -0.05  10  1.1208  0  1  1  0.15  0.4004  1.6846  0.1795  0.1  0  0  3  2  1  1  0  0.1  -0.1  0  0.01  10  0.1  0  0  4  5  99  -99  /
  10737 'IEEEST' 1  1  0  1.013  0.013  0  0  1.013  0.113  0  0.02  0  0  1.65  1.65  3  0.1  -0.1  0  0  /
  10738 'GENROU' 1  6.282200  0.043200  1.121700  0.045400  4.729692  0.000000  2.406600
  2.213400  0.320700  0.497400  0.175500  0.135500  0.059500  0.246600  /
  10738 'ESST4B' 1  0  3.0972  3.0972  1  -1  0  1  0  1  -1  0  5.374  0  8.5994  0.08  0  0  /
  10738 'GGOV1' 1  1  1  0.05  1  0.05  -0.05  10  2  0  1  1  0.15  0.5  1.5  0.1859  0.1  0  0  3  2  0.67  1  0  0.1  -0.1  0  0.01  10  0.1  0  0  4  5  99  -99  /
  10738 'IEEEST' 1  1  0  1.013  0.013  0  0  1.013  0.113  0  0.02  0  0  1.65  1.65  3  0.1  -0.1  0  0  /
  10742 'GENSAL' 1  6.000000  0.411000  0.191100  2.734900  0.000000  1.000000  0.648400
  0.414000  0.366100  0.078400  0.050300  0.200800  /
  10742 'SCRX' 1  0.1  10.01  100  0  -4  5  0  0  /
  10742 'HYGOV' 1  0.05  0.4074  8.6538  0.05  0.5  0.167  1  0  0.5893  1.2  0.2  0.0749  /
  10742 'IEEEST' 1  1  0  1.013  0.013  0  0  1.013  0.113  0  0.02  0  0  1.65  1.65  3  0.1  -0.1  0  0  /
  10743 'GENSAL' 1  6.000000  0.041600  0.360600  2.793600  0.000000  1.000000  0.648400
  0.286300  0.229500  0.081000  0.143200  0.616600  /
  10743 'SCRX' 1  0.1  10.01  100  0.01  -4  5  0  0  /
  10743 'HYGOV' 1  0.07  0.4594  3.9419  0.4  0.4  0.167  1  0  1.9786  1.2  0.2  0.0704  /
  10743 'IEEEST' 1  1  0  1.013  0.013  0  0  1.013  0.113  0  0.02  0  0  1.65  1.65  3  0.1  -0.1  0  0  /
  10744 'GENSAL' 1  6.000000  0.526600  0.234400  3.615300  0.000000  1.000000  0.648400
  0.489800  0.286200  0.085700  0.061100  0.273400  /
  10744 'ESDC1A' 1  0.06  40  0.041667  0  0  10  -10  0  0.9  0.0568  1  0  2.4051  0.1499  3.2069  0.4497  /
  10744 'HYGOV' 1  0.07  0.6786  4.5253  0.4  0.4  0.07  1  0  0.8526  1.2  1  0.0721  /
  10744 'IEEEST' 1  1  0  1.013  0.013  0  0  1.013  0.113  0  0.02  0  0  1.65  1.65  3  0.1  -0.1  0  0  /
  10750 'GENSAL' 1  6.000000  0.372700  0.284300  2.672800  0.000000  1.000000  0.648400
  0.265800  0.265100  0.128500  0.285300  0.858700  /
  10750 'ESDC1A' 1  0.06  100  0.041667  0  0  10  -10  0  0.9  0.0349  1  0  2.4528  0.1224  3.2703  0.3671  /
  10750 'HYGOV' 1  0.07  0.2889  9.4093  0.4  0.33  0.167  1  0  1.8454  1.2  0  0.0751  /
  10750 'IEEEST' 1  1  0  1.013  0.013  0  0  1.013  0.113  0  0.02  0  0  1.65  1.65  3  0.1  -0.1  0  0  /
  10751 'GENSAL' 1  6.000000  0.440900  0.323900  2.813100  0.000000  1.000000  0.648400
  0.479700  0.438600  0.214300  0.180600  0.532300  /
  10751 'ESDC1A' 1  0  40  0.01  0  0  1  -1  0  0.9  0.0392  1  0  2.429  0.1378  3.2387  0.4134  /
  10751 'HYGOV' 1  0.07  0.9635  4.2691  0.2  0.5  0.167  1  0  1.4322  1.2  0.5  0.0745  /
  10751 'IEEEST' 1  1  0  1.013  0.013  0  0  1.013  0.113  0  0.02  0  0  1.65  1.65  3  0.1  -0.1  0  0  /
  10752 'GENSAL' 1  6.000000  0.044200  0.359700  3.992400  0.000000  1.000000  0.648400
  0.257800  0.252700  0.229100  0.116800  0.243100  /
  10752 'IEEET1' 1  0  25  0.2  1.211  -1.211  0  0.646  0.103  1  0  2.6154  0.0813  3.4872  0.3725  /
  10752 'HYGOV' 1  0.05  0.5524  7.0147  0.4  0.33  0.167  1  0  0.7154  1.25  0  0.0707  /
  10752 'IEEEST' 1  1  0  1.013  0.013  0  0  1.013  0.113  0  0.02  0  0  1.65  1.65  3  0.1  -0.1  0  0  /
  10753 'GENSAL' 1  6.000000  0.308100  0.110700  2.386900  0.000000  1.000000  0.648400
  0.408900  0.279700  0.225200  0.087500  0.509100  /
  10753 'IEEET1' 1  0.06  25  0.2  1.211  -1.211  0  0.646  0.103  1  0  2.69  0.0823  3.5866  0.3774  /
  10753 'HYGOV' 1  0.05  0.2511  8.8783  0.4  0.4  0.2  1  0  0.3776  1.25  0.5  0.0786  /
  10753 'IEEEST' 1  1  0  1.013  0.013  0  0  1.013  0.113  0  0.02  0  0  1.65  1.65  3  0.1  -0.1  0  0  /
  10754 'GENSAL' 1  6.000000  0.387500  0.338700  2.235800  0.000000  1.000000  0.648400
  0.306400  0.278700  0.091800  0.286800  0.829000  /
  10754 'SCRX' 1  0.1  10.01  100  0  -4  5  0  0  /
  10754 'HYGOV' 1  0.05  0.5475  9.7169  0.041667  0.5  0.07  1  0  1.8295  1.2  0  0.0706  /
  10754 'IEEEST' 1  1  0  1.013  0.013  0  0  1.013  0.113  0  0.02  0  0  1.65  1.65  3  0.1  -0.1  0  0  /
  10755 'GENSAL' 1  6.000000  0.336000  0.335000  2.110300  0.000000  1.000000  0.648400
  0.358200  0.232100  0.189200  0.258100  0.654400  /
  10755 'SCRX' 1  0.1  10.01  100  0  -4  5  0  0  /
  10755 'HYGOV' 1  0.07  0.6253  9.5544  0.4  0.4  0.1  1  0  1.127  1.2  0  0.0768  /
  10755 'IEEEST' 1  1  0  1.013  0.013  0  0  1.013  0.113  0  0.02  0  0  1.65  1.65  3  0.1  -0.1  0  0  /
  10757 'GENSAL' 1  6.000000  0.454400  0.411900  2.404700  0.000000  1.174700  0.762400
  0.486600  0.338000  0.083800  0.075600  0.345600  /
  10757 'ESDC2A' 1  0.020833  50  0.041667  0.11  0.75  7.21  -7.21  1  0.2  0  0.15  0  2.36  0.2268  3.1467  0.9072  /
  10757 'HYGOV' 1  0.05  0.2889  6.3431  0.4  0.5  0.167  1  0  1.6754  1.2  1  0.07  /
  10757 'IEEEST' 1  1  0  1.013  0.013  0  0  1.013  0.113  0  0.02  0  0  1.65  1.65  3  0.1  -0.1  0  0  /
  10757 'GENSAL' 2  6.000000  0.070800  0.151300  3.462600  0.000000  1.095100  0.710500
  0.321200  0.229200  0.147300  0.081100  0.332400  /
  10757 'ESDC1A' 2  0  40  0.041667  0  0  10  -10  0  0.9  0.0187  1  0  2.4347  0.1445  3.2463  0.4334  /
  10757 'HYGOV' 2  0.07  0.9448  4.3924  0.041667  0.5  0.167  1  0  1.1998  1.25  0.5  0.0736  /
  10757 'IEEEST' 2  1  0  1.013  0.013  0  0  1.013  0.113  0  0.02  0  0  1.65  1.65  3  0.1  -0.1  0  0  /
  10757 'GENSAL' 3  6.000000  0.285200  0.546100  2.246700  0.000000  1.049800  0.680900
  0.378800  0.235000  0.141300  0.050800  0.158000  /
  10757 'ESDC2A' 3  0.020833  50  0.041667  0.1  0.75  0.4  -0.4  0.2  1  0  0.15  0  2.36  0.1908  3.1467  0.7632  /
  10757 'HYGOV' 3  0.05  0.2154  2.8403  0.4  0.5  0.167  1  0  1.6488  1.25  1  0.0726  /
  10757 'IEEEST' 3  1  0  1.013  0.013  0  0  1.013  0.113  0  0.02  0  0  1.65  1.65  3  0.1  -0.1  0  0  /
  10757 'GENSAL' 4  6.000000  0.055200  0.497200  3.795300  0.000000  1.127400  0.731500
  0.507000  0.357400  0.102100  0.286000  0.833700  /
  10757 'SCRX' 4  0.1  10.01  100  0.01  -4  5  0  0  /
  10757 'HYGOV' 4  0.05  0.5755  3.51  0.04  0.4  0.07  1  0  0.8502  1.2  0  0.0743  /
  10757 'IEEEST' 4  1  0  1.013  0.013  0  0  1.013  0.113  0  0.02  0  0  1.65  1.65  3  0.1  -0.1  0  0  /
  10758 'GENSAL' 1  6.000000  0.571600  0.219400  3.680200  0.000000  0.915000  0.593000
  0.342000  0.323800  0.199900  0.139200  0.416100  /
  10758 'SCRX' 1  0.1  10.01  100  0.01  -4  5  0  0  /
  10758 'HYGOV' 1  0.05  0.56  9.6843  0.2  0.33  0.167  1  0  1.1005  1.2  0.5  0.0759  /
  10758 'IEEEST' 1  1  0  1.013  0.013  0  0  1.013  0.113  0  0.02  0  0  1.65  1.65  3  0.1  -0.1  0  0  /
  10758 'GENSAL' 2  6.000000  0.244600  0.373300  2.579800  0.000000  0.930200  0.602900
  0.399500  0.386300  0.190100  0.209600  0.436800  /
  10758 'ESDC1A' 2  0  100  0.041667  0  0  10  -10  0  0.9  0.0735  1  0  2.3228  0.1202  3.0971  0.3606  /
  10758 'HYGOV' 2  0.05  0.347  3.6534  0.4  0.33  0.07  1  0  0.4729  1.25  0.2  0.0768  /
  10758 'IEEEST' 2  1  0  1.013  0.013  0  0  1.013  0.113  0  0.02  0  0  1.65  1.65  3  0.1  -0.1  0  0  /
  10771 'GENSAL' 1  6.000000  0.185800  0.229300  3.360900  0.000000  0.973400  0.631100
  0.215100  0.148500  0.107500  0.174000  0.658600  /
  10771 'IEEET1' 1  0  25  0.2  1  -1  0  0.646  0.103  1  0  2.7362  0.0813  3.6483  0.3725  /
  10771 'HYGOV' 1  0.05  0.7107  5.8821  0.041667  0.4  0.167  1  0  1.4568  1.2  0.5  0.0789  /
  10771 'IEEEST' 1  1  0  1.013  0.013  0  0  1.013  0.113  0  0.02  0  0  1.65  1.65  3  0.1  -0.1  0  0  /
  10772 'GENSAL' 1  6.000000  0.194200  0.113500  3.136600  0.000000  1.033000  0.669900
  0.255300  0.158100  0.085500  0.098400  0.341300  /
  10772 'SCRX' 1  0.1  10.01  100  0  -4  5  0  0  /
  10772 'HYGOV' 1  0.05  0.9311  6.0642  0.2  0.4  0.167  1  0  1.9002  1.2  0  0.0795  /
  10772 'IEEEST' 1  1  0  1.013  0.013  0  0  1.013  0.113  0  0.02  0  0  1.65  1.65  3  0.1  -0.1  0  0  /
  10773 'GENSAL' 1  6.000000  0.132300  0.368200  3.546100  0.000000  1.044400  0.677400
  0.516100  0.437600  0.203500  0.115700  0.407000  /
  10773 'ESDC1A' 1  0.06  100  0.02  0  0  1  -1  0  0.9  0.0478  1  0  2.4586  0.1489  3.2782  0.4466  /
  10773 'HYGOV' 1  0.05  0.3214  7.1815  0.05  0.33  0.07  1  0  0.959  1.25  0  0.0778  /
  10773 'IEEEST' 1  1  0  1.013  0.013  0  0  1.013  0.113  0  0.02  0  0  1.65  1.65  3  0.1  -0.1  0  0  /
  10774 'GENSAL' 1  6.000000  0.233600  0.527700  2.033600  0.000000  0.916400  0.593900
  0.232700  0.196400  0.169200  0.091500  0.353500  /
  10774 'SCRX' 1  0.1  10.01  100  0  -4  5  0  0  /
  10774 'HYGOV' 1  0.07  0.601  3.8649  0.041667  0.33  0.1  1  0  1.3248  1.2  0.2  0.071  /
  10774 'IEEEST' 1  1  0  1.013  0.013  0  0  1.013  0.113  0  0.02  0  0  1.65  1.65  3  0.1  -0.1  0  0  /
  10778 'GENSAL' 1  6.000000  0.571100  0.288300  2.218700  0.000000  1.337000  0.868300
  0.565300  0.355600  0.122200  0.298000  0.842400  /
  10778 'ESDC1A' 1  0.06  40  0.041667  0  0  1  -1  0  0.9  0.0502  1  0  2.3066  0.1295  3.0754  0.3886  /
  10778 'HYGOV' 1  0.05  0.8935  3.879  0.041667  0.5  0.167  1  0  0.4203  1.25  1  0.0776  /
  10778 'IEEEST' 1  1  0  1.013  0.013  0  0  1.013  0.113  0  0.02  0  0  1.65  1.65  3  0.1  -0.1  0  0  /
  10778 'GENSAL' 2  6.000000  0.146600  0.571500  2.395000  0.000000  1.399400  0.908900
  0.437700  0.428000  0.219400  0.127700  0.354600  /
  10778 'IEEET1' 2  0  25  0.2  1  -1  0  0.646  0.103  1  0  2.6892  0.0868  3.5856  0.3978  /
  10778 'HYGOV' 2  0.05  0.4261  8.4497  0.05  0.33  0.167  1  0  0.7145  1.2  1  0.0764  /
  10778 'IEEEST' 2  1  0  1.013  0.013  0  0  1.013  0.113  0  0.02  0  0  1.65  1.65  3  0.1  -0.1  0  0  /
  10796 'GENROU' 1  9.308100  0.065400  0.542400  0.081200  8.209875  0.000000  1.679400
  1.626600  0.162800  0.310400  0.120900  0.091900  0.135600  0.698000  /
  10796 'EXPIC1' 1  0  4  1  1  -0.87  0.01  0  0  1  -0.87  0  1  0  7.2681  0  0  0  1  0  1.2  0  6.1074  0  0.08  /
  10796 'GGOV1' 1  1  1  0.05  1  0.05  -0.05  10  2  0  1  1  0.15  0.5  1.5  0.2  0.1  0  0  3  2  0.67  1  0  0.1  -0.1  0  0.01  10  0.1  0  0  4  5  99  -99  /
  10796 'IEEEST' 1  1  0  1.013  0.013  0  0  1.013  0.113  0  0.02  0  0  1.65  1.65  3  0.1  -0.1  0  0  /
  10797 'GENROU' 1  5.148900  0.044100  0.369700  0.059500  7.971508  0.000000  1.485000
  1.469800  0.225100  0.325000  0.150000  0.115100  0.051900  0.242300  /
  10797 'EXPIC1' 1  0  3  1  1  -0.87  0  0  0  1  -0.87  0  1  0  6.3434  0  0  0  1  0  1.2  0  6.9441  0  0.08  /
  10797 'GGOV1' 1  1  1  0.05  1  0.05  -0.05  10  3.5829  0  1  1  0.15  0.5  1.5  0.2  0.5  0  0  3  2  0.67  1  0  1  -1  0  0.01  10  0.1  0  0  4  5  99  -99  /
  10797 'IEEEST' 1  1  0  1.013  0.013  0  0  1.013  0.113  0  0.02  0  0  1.65  1.65  3  0.1  -0.1  0  0  /
  10797 'GENROU' 2  8.160300  0.054000  1.136300  0.069000  4.560946  0.000000  2.408100
  2.214600  0.337200  0.768400  0.246800  0.192300  0.009700  0.215800  /
  10797 'ESST4B' 2  0  3.2842  3.2842  1  -1  0  1  0  1  -1  0  5.2906  0  6.9721  0.08  0  0  /
  10797 'GGOV1' 2  1  1  0.04  1  0.05  -0.05  2.0697  2  0  1  1  0.15  0.5  1.5  0.2  0.3  0  0  3  1  1  1  0  0.1  -0.1  0  0.01  10  0.1  0  0  4  5  99  -99  /
  10797 'IEEEST' 2  1  0  1.013  0.013  0  0  1.013  0.113  0  0.02  0  0  1.65  1.65  3  0.1  -0.1  0  0  /
  10798 'GENROU' 1  8.330700  0.067500  0.737600  0.070900  5.625436  0.000000  1.970400
  1.861400  0.213600  0.435000  0.149300  0.114600  0.021300  0.269600  /
  10798 'EXPIC1' 1  0  4  1  1  -0.87  0  0  0  1  -0.87  0  1  0  7.911  0  0  0  1  0  1.2  0  5.4442  0  0.08  /
  10798 'GGOV1' 1  1  1  0.04  1  0.05  -0.05  10  2  0  1  1  0.15  0.5  1.2757  0.2  0.1  0  0  3  2  1  1  0  0.1  -0.1  0  0.01  10  0.1  0  0  4  5  99  -99  /
  10798 'IEEEST' 1  1  0  1.013  0.013  0  0  1.013  0.113  0  0.02  0  0  1.65  1.65  3  0.1  -0.1  0  0  /
  10802 'GENSAL' 1  6.000000  0.249800  0.242900  3.989100  0.000000  0.647400  0.418400
  0.272600  0.204700  0.115400  0.224000  0.550900  /
  10802 'ESDC2A' 1  0.020833  50  0.041667  0.11  0.5  1.17  -1.17  1  1  0  1  0  1.76  0.1807  2.3467  0.7228  /
  10802 'HYGOV' 1  0.05  0.7722  6.8972  0.4  0.5  0.07  1  0  1.9529  1.2  0.2  0.0755  /
  10802 'IEEEST' 1  1  0  1.013  0.013  0  0  1.013  0.113  0  0.02  0  0  1.65  1.65  3  0.1  -0.1  0  0  /
  10803 'GENSAL' 1  6.000000  0.538900  0.530000  2.300700  0.000000  1.116300  0.724300
  0.487100  0.374000  0.219700  0.218100  0.468100  /
  10803 'ESDC1A' 1  0.06  100  0.041667  0  0  10  -10  0  0.9  0.0278  1  0  2.2972  0.1379  3.063  0.4137  /
  10803 'HYGOV' 1  0.05  0.3404  5.9578  0.4  0.33  0.167  1  0  1.5494  1.2  0  0.0709  /
  10803 'IEEEST' 1  1  0  1.013  0.013  0  0  1.013  0.113  0  0.02  0  0  1.65  1.65  3  0.1  -0.1  0  0  /
  10806 'GENSAL' 1  6.000000  0.175700  0.259000  3.057500  0.000000  1.049600  0.680700
  0.457400  0.312900  0.106900  0.143400  0.450600  /
  10806 'ESDC2A' 1  0.020833  9.3  0.041667  0.1  0.75  1.17  -1.17  1  1  0  1  0  2.36  0.1801  3.1467  0.7204  /
  10806 'HYGOV' 1  0.07  0.7112  6.5147  0.05  0.5  0.07  1  0  1.5096  1.25  0.5  0.0783  /
  10806 'IEEEST' 1  1  0  1.013  0.013  0  0  1.013  0.113  0  0.02  0  0  1.65  1.65  3  0.1  -0.1  0  0  /
  10806 'GENSAL' 2  6.000000  0.093600  0.153300  3.236200  0.000000  0.996800  0.646300
  0.446400  0.423800  0.151500  0.136100  0.290000  /
  10806 'SCRX' 2  0.1  10.01  100  0  -4  5  0  0  /
  10806 'HYGOV' 2  0.04  0.9856  4.3106  0.041667  0.5  0.167  1  0  1.3097  1.25  0  0.0753  /
  10806 'IEEEST' 2  1  0  1.013  0.013  0  0  1.013  0.113  0  0.02  0  0  1.65  1.65  3  0.1  -0.1  0  0  /
  10807 'GENSAL' 1  6.000000  0.091000  0.093700  3.315600  0.000000  0.935200  0.606100
  0.431000  0.385900  0.126300  0.175900  0.510700  /
  10807 'IEEET1' 1  0  25  0.2  1.211  -1.211  0  0.5  0.103  1  0  2.8639  0.084  3.8185  0.3849  /
  10807 'HYGOV' 1  0.07  0.2932  6.8752  0.4  0.4  0.07  1  0  1.0498  1.2  0.5  0.0791  /
  10807 'IEEEST' 1  1  0  1.013  0.013  0  0  1.013  0.113  0  0.02  0  0  1.65  1.65  3  0.1  -0.1  0  0  /
  10807 'GENSAL' 2  6.000000  0.244900  0.400600  3.531000  0.000000  0.838200  0.542900
  0.360300  0.346600  0.113800  0.197200  0.669900  /
  10807 'SCRX' 2  0.1  10.01  100  0  -4  5  0  0  /
  10807 'HYGOV' 2  0.04  0.8955  2.645  0.4  0.5  0.167  1  0  0.7155  1.2  0.5  0.0729  /
  10807 'IEEEST' 2  1  0  1.013  0.013  0  0  1.013  0.113  0  0.02  0  0  1.65  1.65  3  0.1  -0.1  0  0  /
  10811 'GENROU' 1  9.413000  0.041667  1.402600  0.063500  3.216106  0.000000  1.996800
  1.899000  0.398600  0.339700  0.285500  0.215800  0.048300  0.331600  /
  10811 'IEEET1' 1  0  400  0.2  1  -1  0  0.5  0.1026  1  0  3.812  0.069  5.0826  0.3255  /
  10811 'IEEEG1' 1 0 0  20  0.0682  0  0.3  0.3881  -0.3881  0.7925  0  0.433  0.2954  0  5.0218  0  0  0.4  0.5636  0  0  0  0  /
  10811 'IEEEST' 1  1  0  1.013  0.013  0  0  1.013  0.113  0  0.02  0  0  1.65  1.65  3  0.1  -0.1  0  0  /
  10813 'GENSAL' 1  6.000000  0.237700  0.346100  3.746200  0.000000  0.967800  0.627400
  0.475500  0.436200  0.105100  0.215600  0.601400  /
  10813 'SCRX' 1  0.1  10.01  100  0  -4  5  0  0  /
  10813 'HYGOV' 1  0.05  0.7713  6.635  0.041667  0.5  0.2  1  0  0.6916  1.2  0  0.0745  /
  10813 'IEEEST' 1  1  0  1.013  0.013  0  0  1.013  0.113  0  0.02  0  0  1.65  1.65  3  0.1  -0.1  0  0  /
  10813 'GENSAL' 2  6.000000  0.281500  0.349300  3.912900  0.000000  1.000000  0.648400
  0.457400  0.319100  0.201800  0.070600  0.488200  /
  10813 'SCRX' 2  0.1  10.01  100  0.01  -4  5  0  0  /
  10813 'HYGOV' 2  0.07  0.4483  8.0029  0.2  0.4  0.167  1  0  1.4135  1.2  0.2  0.0734  /
  10813 'IEEEST' 2  1  0  1.013  0.013  0  0  1.013  0.113  0  0.02  0  0  1.65  1.65  3  0.1  -0.1  0  0  /
  10829 'GENSAL' 1  6.000000  0.588800  0.496500  3.686000  0.000000  1.000000  0.648400
  0.351100  0.294000  0.151700  0.272600  0.915100  /
  10829 'ESDC2A' 1  0.020833  9.3  0.041667  0.11  0.5  0.4  -0.4  1  0.2  0  0.15  0  2.36  0.1761  3.1467  0.7044  /
  10829 'HYGOV' 1  0.05  0.6238  6.4712  0.05  0.33  0.1  1  0  1.4744  1.2  1  0.0722  /
  10829 'IEEEST' 1  1  0  1.013  0.013  0  0  1.013  0.113  0  0.02  0  0  1.65  1.65  3  0.1  -0.1  0  0  /